REMARK WARNING: 32 MAX_TORS EXCEEDED!!!
REMARK  56 active torsions:
REMARK  status: ('A' for Active; 'I' for Inactive)
REMARK    1  A    between atoms: C1_1  and  O4_33 
REMARK    2  A    between atoms: C5_2  and  C6_16 
REMARK    3  A    between atoms: C2_4  and  O2_5 
REMARK    4  A    between atoms: O2_5  and  S2_6 
REMARK    5  A    between atoms: C3_10  and  O3_11 
REMARK    6  A    between atoms: C4T_13  and  O4_14 
REMARK    7  A    between atoms: C1T_19  and  O4_53 
REMARK    8  A    between atoms: C5_20  and  C6_34 
REMARK    9  A    between atoms: C2_22  and  N_27 
REMARK   10  A    between atoms: S2_23  and  N_27 
REMARK   11  A    between atoms: C3_29  and  O3_30 
REMARK   12  A    between atoms: C4_32  and  O4_33 
REMARK   13  A    between atoms: C6_34  and  O6_35 
REMARK   14  A    between atoms: O6_35  and  S6_36 
REMARK   15  A    between atoms: C1_40  and  O4_71 
REMARK   16  A    between atoms: C5_41  and  C6_54 
REMARK   17  A    between atoms: C2_43  and  O2_44 
REMARK   18  A    between atoms: O2_44  and  S2_45 
REMARK   19  A    between atoms: C3_49  and  O3_50 
REMARK   20  A    between atoms: C4_52  and  O4_53 
REMARK   21  A    between atoms: C1_57  and  O4_91 
REMARK   22  A    between atoms: C5_58  and  C6_72 
REMARK   23  A    between atoms: C2_60  and  N_65 
REMARK   24  A    between atoms: S2_61  and  N_65 
REMARK   25  A    between atoms: C3_67  and  O3_68 
REMARK   26  A    between atoms: C4_70  and  O4_71 
REMARK   27  A    between atoms: C6_72  and  O6_73 
REMARK   28  A    between atoms: O6_73  and  S6_74 
REMARK   29  A    between atoms: C1_78  and  O4_109 
REMARK   30  A    between atoms: C5_79  and  C6_92 
REMARK   31  A    between atoms: C2_81  and  O2_82 
REMARK   32  A    between atoms: O2_82  and  S2_83 
REMARK   33  A    between atoms: C3_87  and  O3_88 
REMARK   34  A    between atoms: C4_90  and  O4_91 
REMARK   35  A    between atoms: C1_95  and  O4_129 
REMARK   36  A    between atoms: C5_96  and  C6_110 
REMARK   37  A    between atoms: C2_98  and  N_103 
REMARK   38  A    between atoms: S2_99  and  N_103 
REMARK   39  A    between atoms: C3_105  and  O3_106 
REMARK   40  A    between atoms: C4_108  and  O4_109 
REMARK   41  A    between atoms: C6_110  and  O6_111 
REMARK   42  A    between atoms: O6_111  and  S6_112 
REMARK   43  A    between atoms: C1_116  and  O4_149 
REMARK   44  A    between atoms: C5_117  and  C6_130 
REMARK   45  A    between atoms: C2_119  and  O2_120 
REMARK   46  A    between atoms: O2_120  and  S2_121 
REMARK   47  A    between atoms: C3_125  and  O3_126 
REMARK   48  A    between atoms: C4_128  and  O4_129 
REMARK   49  A    between atoms: C1_133  and  O1_134 
REMARK   50  A    between atoms: C5_136  and  C6_150 
REMARK   51  A    between atoms: C2_138  and  N_143 
REMARK   52  A    between atoms: S2_139  and  N_143 
REMARK   53  A    between atoms: C3_145  and  O3_146 
REMARK   54  A    between atoms: C4_148  and  O4_149 
REMARK   55  A    between atoms: C6_150  and  O6_151 
REMARK   56  A    between atoms: O6_151  and  S6_152 
ROOT
ATOM      1  O4  IDO     5      62.913 -40.322 111.574  0.00  0.00    -0.348 OA
ENDROOT
BRANCH   1   2
ATOM      2  C4  IDO     5      62.743 -40.961 112.890  0.00  0.00     0.195 C 
ATOM      3  C5  IDO     5      62.625 -39.955 114.069  0.00  0.00     0.257 C 
ATOM      4  O5  IDO     5      62.629 -40.714 115.272  0.00  0.00    -0.340 OA
ATOM      5  C1  IDO     5      63.689 -41.727 115.442  0.00  0.00     0.294 C 
ATOM      6  C2  IDO     5      63.428 -42.768 114.393  0.00  0.00     0.231 C 
ATOM      7  C3  IDO     5      63.670 -42.080 113.112  0.00  0.00     0.185 C 
BRANCH   3   8
ATOM      8  C6  IDO     5      63.808 -39.002 114.115  0.00  0.00     0.206 C 
ATOM      9  O61 IDO     5      63.463 -37.841 114.633  0.00  0.00    -0.646 OA
ATOM     10  O62 IDO     5      64.896 -39.340 113.655  0.00  0.00    -0.646 OA
ENDBRANCH   3   8
BRANCH   5  11
ATOM     11  O4  GLC     6      63.628 -42.335 116.736  0.00  0.00    -0.348 OA
BRANCH  11  12
ATOM     12  C4  GLC     6      64.242 -41.555 117.739  0.00  0.00     0.186 C 
ATOM     13  C3  GLC     6      63.181 -41.236 118.700  0.00  0.00     0.173 C 
ATOM     14  C2  GLC     6      63.920 -40.462 119.867  0.00  0.00     0.160 C 
ATOM     15  C1  GLC     6      64.885 -41.358 120.618  0.00  0.00     0.282 C 
ATOM     16  O5  GLC     6      65.826 -41.795 119.646  0.00  0.00    -0.349 OA
ATOM     17  C5  GLC     6      65.300 -42.439 118.467  0.00  0.00     0.181 C 
BRANCH  13  18
ATOM     18  O3  GLC     6      62.166 -40.503 118.011  0.00  0.00    -0.391 OA
ATOM     19  HO3 GLC     6      62.371 -40.529 117.074  0.00  0.00     0.210 HD
ENDBRANCH  13  18
BRANCH  14  20
ATOM     20  N   GLC     6      62.844 -39.950 120.782  0.00  0.00    -0.189 NA
ATOM     21  HN  GLC     6      62.460 -40.727 121.338  0.00  0.00     0.143 HD
BRANCH  20  22
ATOM     22  S2  GLC     6      63.070 -38.629 121.609  0.00  0.00     0.183 S 
ATOM     23  OS2 GLC     6      61.896 -38.656 122.433  0.00  0.00    -0.582 OA
ATOM     24  OS2 GLC     6      63.062 -37.620 120.566  0.00  0.00    -0.582 OA
ATOM     25  OS2 GLC     6      64.306 -38.713 122.342  0.00  0.00    -0.582 OA
ENDBRANCH  20  22
ENDBRANCH  14  20
BRANCH  15  26
ATOM     26  O4  IDO     7      64.168 -42.398 121.250  0.00  0.00    -0.348 OA
BRANCH  26  27
ATOM     27  C4  IDO     7      65.007 -43.247 122.118  0.00  0.00     0.195 C 
ATOM     28  C5  IDO     7      64.905 -44.666 121.684  0.00  0.00     0.257 C 
ATOM     29  O5  IDO     7      65.392 -45.582 122.676  0.00  0.00    -0.340 OA
ATOM     30  C1  IDO     7      64.784 -45.442 123.988  0.00  0.00     0.294 C 
ATOM     31  C2  IDO     7      65.138 -43.959 124.446  0.00  0.00     0.231 C 
ATOM     32  C3  IDO     7      64.422 -42.987 123.520  0.00  0.00     0.185 C 
BRANCH  28  33
ATOM     33  C6  IDO     7      63.525 -45.111 121.198  0.00  0.00     0.206 C 
ATOM     34  O61 IDO     7      63.422 -45.408 119.993  0.00  0.00    -0.646 OA
ATOM     35  O62 IDO     7      62.573 -45.050 121.999  0.00  0.00    -0.646 OA
ENDBRANCH  28  33
BRANCH  30  36
ATOM     36  O4  GLC     8      65.370 -46.255 124.993  0.00  0.00    -0.348 OA
BRANCH  36  37
ATOM     37  C4  GLC     8      64.852 -47.627 124.968  0.00  0.00     0.186 C 
ATOM     38  C5  GLC     8      64.467 -47.863 126.455  0.00  0.00     0.181 C 
ATOM     39  O5  GLC     8      64.207 -49.213 126.801  0.00  0.00    -0.350 OA
ATOM     40  C1  GLC     8      65.188 -50.182 126.444  0.00  0.00     0.278 C 
ATOM     41  C2  GLC     8      65.607 -50.064 124.918  0.00  0.00     0.160 C 
ATOM     42  C3  GLC     8      65.949 -48.585 124.537  0.00  0.00     0.173 C 
BRANCH  38  43
ATOM     43  C6  GLC     8      63.408 -46.952 127.066  0.00  0.00     0.227 C 
BRANCH  43  44
ATOM     44  O6  GLC     8      62.283 -46.880 126.220  0.00  0.00    -0.254 OA
BRANCH  44  45
ATOM     45  S6  GLC     8      60.835 -47.487 126.499  0.00  0.00     0.251 S 
ATOM     46  OS6 GLC     8      60.962 -48.801 127.059  0.00  0.00    -0.572 OA
ATOM     47  OS6 GLC     8      60.162 -47.403 125.234  0.00  0.00    -0.572 OA
ATOM     48  OS6 GLC     8      60.191 -46.661 127.518  0.00  0.00    -0.572 OA
ENDBRANCH  44  45
ENDBRANCH  43  44
ENDBRANCH  38  43
BRANCH  40  49
ATOM     49  O1  GLC     8      66.293 -50.122 127.297  0.00  0.00    -0.369 OA
ATOM     50  HO1 GLC     8      67.062 -50.461 126.834  0.00  0.00     0.212 HD
ENDBRANCH  40  49
BRANCH  41  51
ATOM     51  N   GLC     8      66.791 -50.917 124.650  0.00  0.00    -0.189 NA
ATOM     52  HN  GLC     8      67.341 -50.441 123.920  0.00  0.00     0.143 HD
BRANCH  51  53
ATOM     53  S2  GLC     8      66.443 -52.498 124.215  0.00  0.00     0.183 S 
ATOM     54  OS2 GLC     8      65.804 -52.277 122.912  0.00  0.00    -0.582 OA
ATOM     55  OS2 GLC     8      67.705 -53.254 124.136  0.00  0.00    -0.582 OA
ATOM     56  OS2 GLC     8      65.477 -53.074 125.135  0.00  0.00    -0.582 OA
ENDBRANCH  51  53
ENDBRANCH  41  51
BRANCH  42  57
ATOM     57  O3  GLC     8      66.242 -48.388 123.103  0.00  0.00    -0.391 OA
ATOM     58  HO3 GLC     8      66.576 -47.493 123.016  0.00  0.00     0.210 HD
ENDBRANCH  42  57
ENDBRANCH  36  37
ENDBRANCH  30  36
BRANCH  31  59
ATOM     59  O2  IDO     7      64.690 -43.708 125.799  0.00  0.00    -0.244 OA
BRANCH  59  60
ATOM     60  S2  IDO     7      65.858 -43.359 126.814  0.00  0.00     0.252 S 
ATOM     61  OS2 IDO     7      66.954 -44.359 126.714  0.00  0.00    -0.572 OA
ATOM     62  OS2 IDO     7      65.118 -43.380 128.056  0.00  0.00    -0.572 OA
ATOM     63  OS2 IDO     7      66.268 -42.034 126.441  0.00  0.00    -0.572 OA
ENDBRANCH  59  60
ENDBRANCH  31  59
BRANCH  32  64
ATOM     64  O3  IDO     7      64.849 -41.684 123.843  0.00  0.00    -0.390 OA
ATOM     65  HO3 IDO     7      65.749 -41.673 124.179  0.00  0.00     0.210 HD
ENDBRANCH  32  64
ENDBRANCH  26  27
ENDBRANCH  15  26
BRANCH  17  66
ATOM     66  C6  GLC     6      66.523 -42.869 117.673  0.00  0.00     0.227 C 
BRANCH  66  67
ATOM     67  O6  GLC     6      67.191 -41.705 117.157  0.00  0.00    -0.254 OA
BRANCH  67  68
ATOM     68  S6  GLC     6      68.779 -41.662 117.296  0.00  0.00     0.251 S 
ATOM     69  OS6 GLC     6      69.267 -42.868 116.661  0.00  0.00    -0.572 OA
ATOM     70  OS6 GLC     6      68.889 -40.455 116.487  0.00  0.00    -0.572 OA
ATOM     71  OS6 GLC     6      69.044 -41.545 118.733  0.00  0.00    -0.572 OA
ENDBRANCH  67  68
ENDBRANCH  66  67
ENDBRANCH  17  66
ENDBRANCH  11  12
ENDBRANCH   5  11
BRANCH   6  72
ATOM     72  O2  IDO     5      64.350 -43.899 114.645  0.00  0.00    -0.244 OA
BRANCH  72  73
ATOM     73  S2  IDO     5      63.715 -45.297 114.893  0.00  0.00     0.252 S 
ATOM     74  OS2 IDO     5      62.726 -45.135 115.905  0.00  0.00    -0.572 OA
ATOM     75  OS2 IDO     5      64.775 -46.229 115.335  0.00  0.00    -0.572 OA
ATOM     76  OS2 IDO     5      63.225 -45.762 113.599  0.00  0.00    -0.572 OA
ENDBRANCH  72  73
ENDBRANCH   6  72
BRANCH   7  77
ATOM     77  O3  IDO     5      63.668 -42.993 112.070  0.00  0.00    -0.390 OA
ATOM     78  HO3 IDO     5      62.812 -43.425 112.019  0.00  0.00     0.210 HD
ENDBRANCH   7  77
ENDBRANCH   1   2
BRANCH   1  79
ATOM     79  C1  GLC     4      61.887 -40.611 110.659  0.00  0.00     0.282 C 
ATOM     80  C2  GLC     4      62.364 -40.047 109.302  0.00  0.00     0.160 C 
ATOM     81  C3  GLC     4      62.566 -38.510 109.452  0.00  0.00     0.173 C 
ATOM     82  C4  GLC     4      61.223 -37.848 109.773  0.00  0.00     0.186 C 
ATOM     83  C5  GLC     4      60.854 -38.404 111.193  0.00  0.00     0.181 C 
ATOM     84  O5  GLC     4      60.665 -39.839 111.007  0.00  0.00    -0.349 OA
BRANCH  80  85
ATOM     85  N   GLC     4      63.576 -40.814 108.933  0.00  0.00    -0.189 NA
ATOM     86  HN  GLC     4      64.225 -40.118 108.539  0.00  0.00     0.143 HD
BRANCH  85  87
ATOM     87  S2  GLC     4      63.277 -41.980 107.851  0.00  0.00     0.183 S 
ATOM     88  OS2 GLC     4      62.109 -42.686 108.348  0.00  0.00    -0.582 OA
ATOM     89  OS2 GLC     4      63.043 -41.216 106.687  0.00  0.00    -0.582 OA
ATOM     90  OS2 GLC     4      64.481 -42.763 107.787  0.00  0.00    -0.582 OA
ENDBRANCH  85  87
ENDBRANCH  80  85
BRANCH  81  91
ATOM     91  O3  GLC     4      63.153 -38.026 108.263  0.00  0.00    -0.391 OA
ATOM     92  HO3 GLC     4      62.579 -38.145 107.502  0.00  0.00     0.210 HD
ENDBRANCH  81  91
BRANCH  82  93
ATOM     93  O4  GLC     4      61.376 -36.447 109.816  0.00  0.00    -0.348 OA
BRANCH  93  94
ATOM     94  C1  IDO     3      60.359 -35.831 109.109  0.00  0.00     0.294 C 
ATOM     95  C2  IDO     3      60.528 -34.373 109.430  0.00  0.00     0.231 C 
ATOM     96  C3  IDO     3      59.524 -33.486 108.661  0.00  0.00     0.185 C 
ATOM     97  C4  IDO     3      59.518 -33.803 107.155  0.00  0.00     0.195 C 
ATOM     98  C5  IDO     3      59.566 -35.276 106.851  0.00  0.00     0.257 C 
ATOM     99  O5  IDO     3      60.569 -35.936 107.666  0.00  0.00    -0.340 OA
BRANCH  95 100
ATOM    100  O2  IDO     3      60.426 -34.111 110.848  0.00  0.00    -0.244 OA
BRANCH 100 101
ATOM    101  S2  IDO     3      61.697 -33.499 111.500  0.00  0.00     0.252 S 
ATOM    102  OS2 IDO     3      62.708 -34.517 111.608  0.00  0.00    -0.572 OA
ATOM    103  OS2 IDO     3      61.227 -33.062 112.862  0.00  0.00    -0.572 OA
ATOM    104  OS2 IDO     3      62.017 -32.338 110.671  0.00  0.00    -0.572 OA
ENDBRANCH 100 101
ENDBRANCH  95 100
BRANCH  96 105
ATOM    105  O3  IDO     3      59.811 -32.145 108.876  0.00  0.00    -0.390 OA
ATOM    106  HO3 IDO     3      60.768 -32.090 108.831  0.00  0.00     0.210 HD
ENDBRANCH  96 105
BRANCH  97 107
ATOM    107  O4  IDO     3      58.410 -33.285 106.426  0.00  0.00    -0.348 OA
BRANCH 107 108
ATOM    108  C1T GLC     2      58.620 -31.988 105.879  0.00  0.00     0.287 C 
ATOM    109  C2  GLC     2      57.313 -31.462 105.204  0.00  0.00     0.182 C 
ATOM    110  C3  GLC     2      56.927 -32.293 104.012  0.00  0.00     0.178 C 
ATOM    111  C4  GLC     2      58.074 -32.392 102.991  0.00  0.00     0.186 C 
ATOM    112  C5  GLC     2      59.325 -32.967 103.736  0.00  0.00     0.181 C 
ATOM    113  O5  GLC     2      59.649 -32.097 104.841  0.00  0.00    -0.349 OA
BRANCH 109 114
ATOM    114  N   GLC     2      56.218 -31.131 106.246  0.00  0.00    -0.289 N 
ATOM    115  HN  GLC     2      55.779 -31.947 106.696  0.00  0.00     0.175 HD
BRANCH 114 116
ATOM    116  S2  GLC     2      55.196 -29.949 106.007  0.00  0.00     0.205 S 
ATOM    117  OS2 GLC     2      54.420 -30.312 104.824  0.00  0.00    -0.578 OA
ATOM    118  OS2 GLC     2      56.027 -28.795 105.721  0.00  0.00    -0.578 OA
ATOM    119  OS2 GLC     2      54.428 -29.750 107.276  0.00  0.00    -0.578 OA
ENDBRANCH 114 116
ENDBRANCH 109 114
BRANCH 110 120
ATOM    120  O3  GLC     2      55.874 -31.747 103.305  0.00  0.00    -0.391 OA
ATOM    121  HO3 GLC     2      55.422 -31.226 103.973  0.00  0.00     0.210 HD
ENDBRANCH 110 120
BRANCH 111 122
ATOM    122  O4  GLC     2      57.721 -33.351 101.984  0.00  0.00    -0.348 OA
BRANCH 122 123
ATOM    123  C1  IDO     1      57.945 -32.934 100.700  0.00  0.00     0.294 C 
ATOM    124  C2  IDO     1      57.747 -34.148  99.766  0.00  0.00     0.231 C 
ATOM    125  C3  IDO     1      57.948 -33.734  98.385  0.00  0.00     0.185 C 
ATOM    126  C4T IDO     1      57.080 -32.468  98.063  0.00  0.00     0.189 C 
ATOM    127  C5  IDO     1      57.214 -31.360  99.065  0.00  0.00     0.256 C 
ATOM    128  O5  IDO     1      56.951 -31.983 100.346  0.00  0.00    -0.340 OA
BRANCH 124 129
ATOM    129  O2  IDO     1      58.735 -35.064 100.110  0.00  0.00    -0.244 OA
BRANCH 129 130
ATOM    130  S2  IDO     1      58.272 -36.426 100.844  0.00  0.00     0.252 S 
ATOM    131  OS2 IDO     1      57.399 -36.051 101.903  0.00  0.00    -0.572 OA
ATOM    132  OS2 IDO     1      57.588 -37.288  99.892  0.00  0.00    -0.572 OA
ATOM    133  OS2 IDO     1      59.533 -36.962 101.411  0.00  0.00    -0.572 OA
ENDBRANCH 129 130
ENDBRANCH 124 129
BRANCH 125 134
ATOM    134  O3  IDO     1      57.620 -34.780  97.519  0.00  0.00    -0.390 OA
ATOM    135  HO3 IDO     1      56.699 -35.049  97.542  0.00  0.00     0.210 HD
ENDBRANCH 125 134
BRANCH 126 136
ATOM    136  O4  IDO     1      57.211 -31.933  96.757  0.00  0.00    -0.390 OA
ATOM    137  HO4 IDO     1      58.150 -31.742  96.814  0.00  0.00     0.210 HD
ENDBRANCH 126 136
BRANCH 127 138
ATOM    138  C6  IDO     1      58.552 -30.502  98.995  0.00  0.00     0.206 C 
ATOM    139  O62 IDO     1      58.479 -29.581  99.868  0.00  0.00    -0.646 OA
ATOM    140  O61 IDO     1      59.328 -30.654  98.021  0.00  0.00    -0.646 OA
ENDBRANCH 127 138
ENDBRANCH 122 123
ENDBRANCH 111 122
BRANCH 112 141
ATOM    141  C6  GLC     2      60.634 -33.021 103.006  0.00  0.00     0.227 C 
BRANCH 141 142
ATOM    142  O6  GLC     2      60.930 -31.696 102.475  0.00  0.00    -0.254 OA
BRANCH 142 143
ATOM    143  S6  GLC     2      61.988 -31.629 101.361  0.00  0.00     0.251 S 
ATOM    144  OS6 GLC     2      61.366 -32.360 100.313  0.00  0.00    -0.572 OA
ATOM    145  OS6 GLC     2      62.224 -30.198 101.118  0.00  0.00    -0.572 OA
ATOM    146  OS6 GLC     2      63.203 -32.317 101.900  0.00  0.00    -0.572 OA
ENDBRANCH 142 143
ENDBRANCH 141 142
ENDBRANCH 112 141
ENDBRANCH 107 108
ENDBRANCH  97 107
BRANCH  98 147
ATOM    147  C6  IDO     3      58.223 -36.074 106.856  0.00  0.00     0.206 C 
ATOM    148  O62 IDO     3      58.005 -36.945 105.961  0.00  0.00    -0.646 OA
ATOM    149  O61 IDO     3      57.387 -35.909 107.833  0.00  0.00    -0.646 OA
ENDBRANCH  98 147
ENDBRANCH  93  94
ENDBRANCH  82  93
BRANCH  83 150
ATOM    150  C6  GLC     4      59.572 -37.830 111.762  0.00  0.00     0.227 C 
BRANCH 150 151
ATOM    151  O6  GLC     4      59.598 -37.955 113.248  0.00  0.00    -0.254 OA
BRANCH 151 152
ATOM    152  S6  GLC     4      58.170 -38.475 113.772  0.00  0.00     0.251 S 
ATOM    153  OS6 GLC     4      57.863 -39.745 113.147  0.00  0.00    -0.572 OA
ATOM    154  OS6 GLC     4      58.381 -38.575 115.269  0.00  0.00    -0.572 OA
ATOM    155  OS6 GLC     4      57.223 -37.408 113.464  0.00  0.00    -0.572 OA
ENDBRANCH 151 152
ENDBRANCH 150 151
ENDBRANCH  83 150
ENDBRANCH   1  79
TORSDOF 56
