REMARK  27 active torsions:
REMARK  status: ('A' for Active; 'I' for Inactive)
REMARK    1  A    between atoms: C1_1  and  O4_43 
REMARK    2  A    between atoms: C5_3  and  C6_21 
REMARK    3  A    between atoms: C2_6  and  O2_8 
REMARK    4  A    between atoms: O2_8  and  S2_9 
REMARK    5  A    between atoms: C3_13  and  O3_15 
REMARK    6  A    between atoms: C4T_17  and  O4_19 
REMARK    7  A    between atoms: C1T_24  and  O4_70 
REMARK    8  A    between atoms: C5_26  and  C6_44 
REMARK    9  A    between atoms: C2_29  and  N_35 
REMARK   10  A    between atoms: S2_31  and  N_35 
REMARK   11  A    between atoms: C3_37  and  O3_39 
REMARK   12  A    between atoms: C4_41  and  O4_43 
REMARK   13  A    between atoms: C6_44  and  O6_47 
REMARK   14  A    between atoms: O6_47  and  S6_48 
REMARK   15  A    between atoms: C1_52  and  O4_94 
REMARK   16  A    between atoms: C5_54  and  C6_71 
REMARK   17  A    between atoms: C2_57  and  O2_59 
REMARK   18  A    between atoms: O2_59  and  S2_60 
REMARK   19  A    between atoms: C3_64  and  O3_66 
REMARK   20  A    between atoms: C4_68  and  O4_70 
REMARK   21  A    between atoms: C5_77  and  C6_95 
REMARK   22  A    between atoms: C2_80  and  N_86 
REMARK   23  A    between atoms: S2_82  and  N_86 
REMARK   24  A    between atoms: C3_88  and  O3_90 
REMARK   25  A    between atoms: C4_92  and  O4_94 
REMARK   26  A    between atoms: C6_95  and  O6_98 
REMARK   27  A    between atoms: O6_98  and  S6_99 
ROOT
ATOM      1  C1  IDO     1      57.945 -32.934 100.700  0.00  0.00     0.288 C 
ATOM      2  C5  IDO     1      57.214 -31.360  99.065  0.00  0.00     0.253 C 
ATOM      3  O5  IDO     1      56.951 -31.983 100.346  0.00  0.00    -0.298 OA
ATOM      4  C2  IDO     1      57.747 -34.148  99.766  0.00  0.00     0.242 C 
ATOM      5  C3  IDO     1      57.948 -33.734  98.385  0.00  0.00     0.194 C 
ATOM      6  C4T IDO     1      57.080 -32.468  98.063  0.00  0.00     0.197 C 
ENDROOT
BRANCH   1   7
ATOM      7  O4  GLC     2      57.721 -33.351 101.984  0.00  0.00    -0.326 OA
BRANCH   7   8
ATOM      8  C4  GLC     2      58.074 -32.392 102.991  0.00  0.00     0.176 C 
ATOM      9  C5  GLC     2      59.325 -32.967 103.736  0.00  0.00     0.179 C 
ATOM     10  O5  GLC     2      59.649 -32.097 104.841  0.00  0.00    -0.327 OA
ATOM     11  C1T GLC     2      58.620 -31.988 105.879  0.00  0.00     0.260 C 
ATOM     12  C2  GLC     2      57.313 -31.462 105.204  0.00  0.00     0.176 C 
ATOM     13  C3  GLC     2      56.927 -32.293 104.012  0.00  0.00     0.166 C 
BRANCH   9  14
ATOM     14  C6  GLC     2      60.634 -33.021 103.006  0.00  0.00     0.198 C 
BRANCH  14  15
ATOM     15  O6  GLC     2      60.930 -31.696 102.475  0.00  0.00    -0.235 OA
BRANCH  15  16
ATOM     16  S6  GLC     2      61.988 -31.629 101.361  0.00  0.00     0.252 S 
ATOM     17  OS6 GLC     2      62.224 -30.198 101.118  0.00  0.00    -0.572 OA
ATOM     18  OS6 GLC     2      61.366 -32.360 100.313  0.00  0.00    -0.572 OA
ATOM     19  OS6 GLC     2      63.203 -32.317 101.900  0.00  0.00    -0.572 OA
ENDBRANCH  15  16
ENDBRANCH  14  15
ENDBRANCH   9  14
BRANCH  11  20
ATOM     20  O4  IDO     3      58.410 -33.285 106.426  0.00  0.00    -0.356 OA
BRANCH  20  21
ATOM     21  C4  IDO     3      59.518 -33.803 107.155  0.00  0.00     0.155 C 
ATOM     22  C5  IDO     3      59.566 -35.276 106.851  0.00  0.00     0.204 C 
ATOM     23  O5  IDO     3      60.569 -35.936 107.666  0.00  0.00    -0.347 OA
ATOM     24  C1  IDO     3      60.359 -35.831 109.109  0.00  0.00     0.239 C 
ATOM     25  C2  IDO     3      60.528 -34.373 109.430  0.00  0.00     0.193 C 
ATOM     26  C3  IDO     3      59.524 -33.486 108.661  0.00  0.00     0.145 C 
BRANCH  22  27
ATOM     27  C6  IDO     3      58.223 -36.074 106.856  0.00  0.00     0.187 C 
ATOM     28  O62 IDO     3      58.005 -36.945 105.961  0.00  0.00    -0.675 OA
ATOM     29  O61 IDO     3      57.387 -35.909 107.833  0.00  0.00    -0.675 OA
ENDBRANCH  22  27
BRANCH  24  30
ATOM     30  O4  GLC     4      61.376 -36.447 109.816  0.00  0.00    -0.319 OA
BRANCH  30  31
ATOM     31  C4  GLC     4      61.223 -37.848 109.773  0.00  0.00     0.183 C 
ATOM     32  C5  GLC     4      60.854 -38.404 111.193  0.00  0.00     0.183 C 
ATOM     33  O5  GLC     4      60.665 -39.839 111.007  0.00  0.00    -0.343 OA
ATOM     34  C1  GLC     4      61.887 -40.611 110.659  0.00  0.00     0.169 C 
ATOM     35  C2  GLC     4      62.364 -40.047 109.302  0.00  0.00     0.137 C 
ATOM     36  C3  GLC     4      62.566 -38.510 109.452  0.00  0.00     0.165 C 
BRANCH  32  37
ATOM     37  C6  GLC     4      59.572 -37.830 111.762  0.00  0.00     0.205 C 
BRANCH  37  38
ATOM     38  O6  GLC     4      59.598 -37.955 113.248  0.00  0.00    -0.228 OA
BRANCH  38  39
ATOM     39  S6  GLC     4      58.170 -38.475 113.772  0.00  0.00     0.259 S 
ATOM     40  OS6 GLC     4      57.863 -39.745 113.147  0.00  0.00    -0.565 OA
ATOM     41  OS6 GLC     4      58.381 -38.575 115.269  0.00  0.00    -0.565 OA
ATOM     42  OS6 GLC     4      57.223 -37.408 113.464  0.00  0.00    -0.565 OA
ENDBRANCH  38  39
ENDBRANCH  37  38
ENDBRANCH  32  37
BRANCH  35  43
ATOM     43  N   GLC     4      63.576 -40.814 108.933  0.00  0.00    -0.175 NA
ATOM     44  HN  GLC     4      64.225 -40.118 108.539  0.00  0.00     0.150 HD
BRANCH  43  45
ATOM     45  S2  GLC     4      63.277 -41.980 107.851  0.00  0.00     0.191 S 
ATOM     46  OS2 GLC     4      64.481 -42.763 107.787  0.00  0.00    -0.575 OA
ATOM     47  OS2 GLC     4      63.043 -41.216 106.687  0.00  0.00    -0.575 OA
ATOM     48  OS2 GLC     4      62.109 -42.686 108.348  0.00  0.00    -0.575 OA
ENDBRANCH  43  45
ENDBRANCH  35  43
BRANCH  36  49
ATOM     49  O3  GLC     4      63.153 -38.026 108.263  0.00  0.00    -0.374 OA
ATOM     50  HO3 GLC     4      62.579 -38.145 107.502  0.00  0.00     0.218 HD
ENDBRANCH  36  49
ENDBRANCH  30  31
ENDBRANCH  24  30
BRANCH  25  51
ATOM     51  O2  IDO     3      60.426 -34.111 110.848  0.00  0.00    -0.262 OA
BRANCH  51  52
ATOM     52  S2  IDO     3      61.697 -33.499 111.500  0.00  0.00     0.223 S 
ATOM     53  OS2 IDO     3      62.017 -32.338 110.671  0.00  0.00    -0.602 OA
ATOM     54  OS2 IDO     3      61.227 -33.062 112.862  0.00  0.00    -0.602 OA
ATOM     55  OS2 IDO     3      62.708 -34.517 111.608  0.00  0.00    -0.602 OA
ENDBRANCH  51  52
ENDBRANCH  25  51
BRANCH  26  56
ATOM     56  O3  IDO     3      59.811 -32.145 108.876  0.00  0.00    -0.409 OA
ATOM     57  HO3 IDO     3      60.768 -32.090 108.831  0.00  0.00     0.181 HD
ENDBRANCH  26  56
ENDBRANCH  20  21
ENDBRANCH  11  20
BRANCH  12  58
ATOM     58  N   GLC     2      56.218 -31.131 106.246  0.00  0.00    -0.279 N 
ATOM     59  HN  GLC     2      55.779 -31.947 106.696  0.00  0.00     0.176 HD
BRANCH  58  60
ATOM     60  S2  GLC     2      55.196 -29.949 106.007  0.00  0.00     0.205 S 
ATOM     61  OS2 GLC     2      56.027 -28.795 105.721  0.00  0.00    -0.578 OA
ATOM     62  OS2 GLC     2      54.420 -30.312 104.824  0.00  0.00    -0.578 OA
ATOM     63  OS2 GLC     2      54.428 -29.750 107.276  0.00  0.00    -0.578 OA
ENDBRANCH  58  60
ENDBRANCH  12  58
BRANCH  13  64
ATOM     64  O3  GLC     2      55.874 -31.747 103.305  0.00  0.00    -0.380 OA
ATOM     65  HO3 GLC     2      55.422 -31.226 103.973  0.00  0.00     0.211 HD
ENDBRANCH  13  64
ENDBRANCH   7   8
ENDBRANCH   1   7
BRANCH   4  66
ATOM     66  O2  IDO     1      58.735 -35.064 100.110  0.00  0.00    -0.213 OA
BRANCH  66  67
ATOM     67  S2  IDO     1      58.272 -36.426 100.844  0.00  0.00     0.272 S 
ATOM     68  OS2 IDO     1      57.588 -37.288  99.892  0.00  0.00    -0.553 OA
ATOM     69  OS2 IDO     1      57.399 -36.051 101.903  0.00  0.00    -0.553 OA
ATOM     70  OS2 IDO     1      59.533 -36.962 101.411  0.00  0.00    -0.553 OA
ENDBRANCH  66  67
ENDBRANCH   4  66
BRANCH   5  71
ATOM     71  O3  IDO     1      57.620 -34.780  97.519  0.00  0.00    -0.360 OA
ATOM     72  HO3 IDO     1      56.699 -35.049  97.542  0.00  0.00     0.230 HD
ENDBRANCH   5  71
BRANCH   2  73
ATOM     73  C6  IDO     1      58.552 -30.502  98.995  0.00  0.00     0.236 C 
ATOM     74  O62 IDO     1      58.479 -29.581  99.868  0.00  0.00    -0.626 OA
ATOM     75  O61 IDO     1      59.328 -30.654  98.021  0.00  0.00    -0.626 OA
ENDBRANCH   2  73
BRANCH   6  76
ATOM     76  O4  IDO     1      57.211 -31.933  96.757  0.00  0.00    -0.360 OA
ATOM     77  HO4 IDO     1      58.150 -31.742  96.814  0.00  0.00     0.230 HD
ENDBRANCH   6  76
TORSDOF 27
